Test Cases/dist_opf_case137.m
function [baseMVA,bus,busPmax,busPmin,busQmax,busQmin,busPG,busQG,gen,branch, PBase ,PFBase,busLoadImportant,w_gen] = dist_opf_case137
% DIST_OPF_CASE137 配网测试系统数据 (RTS79 标准格式)
% 自动提取自: 137-Node System Data.xlsx 和 Testbench

[PQ, PV, REF, BUS_I, BUS_TYPE, PD, QD, GS, BS, BUS_AREA, VM, ...
	VA, BASE_KV, VMAX, VMIN, PGMAX,PGMIN,QGMAX,QGMIN,PG,QG,LOLP,LOLE,LOLF,LOLD,EDNS,EENS,...
	LAM_P,LAM_Q,MU_VMAX,MU_VMIN,MU_PMAX,MU_PMIN,MU_QMAX,MU_QMIN] = idx_bus;
[GEN_BUS, GEN_PMAX, GEN_PMIN, GEN_QMAX, GEN_QMIN, GEN_STATUS, ...
	GEN_LAMDA,GEN_MTTF,GEN_PG,GEN_QG,GEN_PFAILURE] = idx_gen;
[F_BUS, T_BUS, BR_R, BR_X, BR_B, RATE, TAP, SHIFT_ANGLE, BR_STATUS, BR_LAMDA,...
	BR_MTTF,TCSC_X, BR_PFAILURE, PF, QF, PT, QT, MU_SF, MU_ST, KT_MAXANGLE_TPST,KT_MINANGLE_TPST,KT_MAX_X_TCSC,KT_MIN_X_TCSC] = idx_brch;
[NEWTON,FDFP_XB,FDFP_BX,DCPF] = idx_powerflow;

%% system MVA base
baseMVA = 100.0000;

%% bus data
bus = [
	1	1	338.0400	111.5532	0	0	1	1.0000	0	12.66	1.10	0.90;
	2	1	67.1400	22.1562	0	0	1	1.0000	0	12.66	1.10	0.90;
	3	1	59.7600	19.7208	0	0	1	1.0000	0	12.66	1.10	0.90;
	4	1	122.2200	40.3326	0	0	1	1.0000	0	12.66	1.10	0.90;
	5	1	437.2200	144.2826	0	0	1	1.0000	0	12.66	1.10	0.90;
	6	1	209.0700	68.9931	0	0	1	1.0000	0	12.66	1.10	0.90;
	7	1	335.2500	110.6325	0	0	1	1.0000	0	12.66	1.10	0.90;
	8	1	87.4800	28.8684	0	0	1	1.0000	0	12.66	1.10	0.90;
	9	1	174.9600	57.7368	0	0	1	1.0000	0	12.66	1.10	0.90;
	10	1	196.8300	64.9539	0	0	1	1.0000	0	12.66	1.10	0.90;
	11	1	164.0700	54.1431	0	0	1	1.0000	0	12.66	1.10	0.90;
	12	1	350.0100	115.5033	0	0	1	1.0000	0	12.66	1.10	0.90;
	13	1	409.1400	135.0162	0	0	1	1.0000	0	12.66	1.10	0.90;
	14	1	426.6000	140.7780	0	0	1	1.0000	0	12.66	1.10	0.90;
	15	1	302.4900	99.8217	0	0	1	1.0000	0	12.66	1.10	0.90;
	16	1	278.9100	92.0403	0	0	1	1.0000	0	12.66	1.10	0.90;
	17	1	559.8900	184.7637	0	0	1	1.0000	0	12.66	1.10	0.90;
	18	1	206.1900	68.0427	0	0	1	1.0000	0	12.66	1.10	0.90;
	19	1	97.9200	32.3136	0	0	1	1.0000	0	12.66	1.10	0.90;
	20	1	43.7400	14.4342	0	0	1	1.0000	0	12.66	1.10	0.90;
	21	1	335.5200	110.7216	0	0	1	1.0000	0	12.66	1.10	0.90;
	22	1	87.5700	28.8981	0	0	1	1.0000	0	12.66	1.10	0.90;
	23	1	335.5200	110.7216	0	0	1	1.0000	0	12.66	1.10	0.90;
	24	1	175.0500	57.7665	0	0	1	1.0000	0	12.66	1.10	0.90;
	25	1	351.0900	115.8597	0	0	1	1.0000	0	12.66	1.10	0.90;
	26	1	82.8000	27.3240	0	0	1	1.0000	0	12.66	1.10	0.90;
	27	1	529.7400	174.8142	0	0	1	1.0000	0	12.66	1.10	0.90;
	28	1	281.8800	93.0204	0	0	1	1.0000	0	12.66	1.10	0.90;
	29	1	181.0800	59.7564	0	0	1	1.0000	0	12.66	1.10	0.90;
	30	1	82.8000	27.3240	0	0	1	1.0000	0	12.66	1.10	0.90;
	31	1	492.0300	162.3699	0	0	1	1.0000	0	12.66	1.10	0.90;
	32	1	124.2000	40.9860	0	0	1	1.0000	0	12.66	1.10	0.90;
	33	1	223.2000	73.6560	0	0	1	1.0000	0	12.66	1.10	0.90;
	34	1	576.2700	190.1691	0	0	1	1.0000	0	12.66	1.10	0.90;
	35	1	486.8100	160.6473	0	0	1	1.0000	0	12.66	1.10	0.90;
	36	1	263.1600	86.8428	0	0	1	1.0000	0	12.66	1.10	0.90;
	37	1	351.8100	116.0973	0	0	1	1.0000	0	12.66	1.10	0.90;
	38	1	109.4400	36.1152	0	0	1	1.0000	0	12.66	1.10	0.90;
	39	1	186.6600	61.5978	0	0	1	1.0000	0	12.66	1.10	0.90;
	40	1	1.8000	0.5940	0	0	1	1.0000	0	12.66	1.10	0.90;
	41	1	8.9100	2.9403	0	0	1	1.0000	0	12.66	1.10	0.90;
	42	1	223.2000	73.6560	0	0	1	1.0000	0	12.66	1.10	0.90;
	43	1	167.0400	55.1232	0	0	1	1.0000	0	12.66	1.10	0.90;
	44	1	88.2900	29.1357	0	0	1	1.0000	0	12.66	1.10	0.90;
	45	1	244.1700	80.5761	0	0	1	1.0000	0	12.66	1.10	0.90;
	46	1	649.9800	214.4934	0	0	1	1.0000	0	12.66	1.10	0.90;
	47	1	372.6900	122.9877	0	0	1	1.0000	0	12.66	1.10	0.90;
	48	1	334.1700	110.2761	0	0	1	1.0000	0	12.66	1.10	0.90;
	49	1	266.2200	87.8526	0	0	1	1.0000	0	12.66	1.10	0.90;
	50	1	154.8000	51.0840	0	0	1	1.0000	0	12.66	1.10	0.90;
	51	1	377.1900	124.4727	0	0	1	1.0000	0	12.66	1.10	0.90;
	52	1	103.2300	34.0659	0	0	1	1.0000	0	12.66	1.10	0.90;
	53	1	366.3900	120.9087	0	0	1	1.0000	0	12.66	1.10	0.90;
	54	1	98.0100	32.3433	0	0	1	1.0000	0	12.66	1.10	0.90;
	55	1	30.9600	10.2168	0	0	1	1.0000	0	12.66	1.10	0.90;
	56	1	576.8100	190.3473	0	0	1	1.0000	0	12.66	1.10	0.90;
	57	1	29.0700	9.5931	0	0	1	1.0000	0	12.66	1.10	0.90;
	58	1	213.3900	70.4187	0	0	1	1.0000	0	12.66	1.10	0.90;
	59	1	312.8400	103.2372	0	0	1	1.0000	0	12.66	1.10	0.90;
	60	1	130.9500	43.2135	0	0	1	1.0000	0	12.66	1.10	0.90;
	61	1	554.6700	183.0411	0	0	1	1.0000	0	12.66	1.10	0.90;
	62	1	321.3000	106.0290	0	0	1	1.0000	0	12.66	1.10	0.90;
	63	1	476.3700	157.2021	0	0	1	1.0000	0	12.66	1.10	0.90;
	64	1	412.9200	136.2636	0	0	1	1.0000	0	12.66	1.10	0.90;
	65	1	116.5500	38.4615	0	0	1	1.0000	0	12.66	1.10	0.90;
	66	1	116.5500	38.4615	0	0	1	1.0000	0	12.66	1.10	0.90;
	67	1	145.7100	48.0843	0	0	1	1.0000	0	12.66	1.10	0.90;
	68	1	247.7700	81.7641	0	0	1	1.0000	0	12.66	1.10	0.90;
	69	1	116.5500	38.4615	0	0	1	1.0000	0	12.66	1.10	0.90;
	70	1	306.0900	101.0097	0	0	1	1.0000	0	12.66	1.10	0.90;
	71	1	32.7600	10.8108	0	0	1	1.0000	0	12.66	1.10	0.90;
	72	1	7.1100	2.3463	0	0	1	1.0000	0	12.66	1.10	0.90;
	73	1	102.0600	33.6798	0	0	1	1.0000	0	12.66	1.10	0.90;
	74	1	570.2400	188.1792	0	0	1	1.0000	0	12.66	1.10	0.90;
	75	1	241.4700	79.6851	0	0	1	1.0000	0	12.66	1.10	0.90;
	76	1	142.0200	46.8666	0	0	1	1.0000	0	12.66	1.10	0.90;
	77	1	202.0500	66.6765	0	0	1	1.0000	0	12.66	1.10	0.90;
	78	1	136.1700	44.9361	0	0	1	1.0000	0	12.66	1.10	0.90;
	79	1	425.8800	140.5404	0	0	1	1.0000	0	12.66	1.10	0.90;
	80	1	200.1600	66.0528	0	0	1	1.0000	0	12.66	1.10	0.90;
	81	1	396.6300	130.8879	0	0	1	1.0000	0	12.66	1.10	0.90;
	82	1	123.7500	40.8375	0	0	1	1.0000	0	12.66	1.10	0.90;
	83	1	345.6000	114.0480	0	0	1	1.0000	0	12.66	1.10	0.90;
	84	1	351.1800	115.8894	0	0	1	1.0000	0	12.66	1.10	0.90;
	85	1	553.3200	182.5956	0	0	1	1.0000	0	12.66	1.10	0.90;
	86	1	127.3500	42.0255	0	0	1	1.0000	0	12.66	1.10	0.90;
	87	1	1611.9900	531.9567	0	0	1	1.0000	0	12.66	1.10	0.90;
	88	1	649.6200	214.3746	0	0	1	1.0000	0	12.66	1.10	0.90;
	89	1	546.0300	180.1899	0	0	1	1.0000	0	12.66	1.10	0.90;
	90	1	87.4800	28.8684	0	0	1	1.0000	0	12.66	1.10	0.90;
	91	1	112.8600	37.2438	0	0	1	1.0000	0	12.66	1.10	0.90;
	92	1	123.7500	40.8375	0	0	1	1.0000	0	12.66	1.10	0.90;
	93	1	339.3000	111.9690	0	0	1	1.0000	0	12.66	1.10	0.90;
	94	1	104.8500	34.6005	0	0	1	1.0000	0	12.66	1.10	0.90;
	95	1	328.9500	108.5535	0	0	1	1.0000	0	12.66	1.10	0.90;
	96	1	201.0600	66.3498	0	0	1	1.0000	0	12.66	1.10	0.90;
	97	1	87.4800	28.8684	0	0	1	1.0000	0	12.66	1.10	0.90;
	98	1	108.3600	35.7588	0	0	1	1.0000	0	12.66	1.10	0.90;
	99	1	473.7600	156.3408	0	0	1	1.0000	0	12.66	1.10	0.90;
	100	1	72.7200	23.9976	0	0	1	1.0000	0	12.66	1.10	0.90;
	101	1	84.8700	28.0071	0	0	1	1.0000	0	12.66	1.10	0.90;
	102	1	169.6500	55.9845	0	0	1	1.0000	0	12.66	1.10	0.90;
	103	1	292.3200	96.4656	0	0	1	1.0000	0	12.66	1.10	0.90;
	104	1	22.8600	7.5438	0	0	1	1.0000	0	12.66	1.10	0.90;
	105	1	2061.7200	680.3676	0	0	1	1.0000	0	12.66	1.10	0.90;
	106	1	428.4000	141.3720	0	0	1	1.0000	0	12.66	1.10	0.90;
	107	1	109.2600	36.0558	0	0	1	1.0000	0	12.66	1.10	0.90;
	108	1	67.7700	22.3641	0	0	1	1.0000	0	12.66	1.10	0.90;
	109	1	88.7400	29.2842	0	0	1	1.0000	0	12.66	1.10	0.90;
	110	1	267.1200	88.1496	0	0	1	1.0000	0	12.66	1.10	0.90;
	111	1	77.3100	25.5123	0	0	1	1.0000	0	12.66	1.10	0.90;
	112	1	57.9600	19.1268	0	0	1	1.0000	0	12.66	1.10	0.90;
	113	1	177.8400	58.6872	0	0	1	1.0000	0	12.66	1.10	0.90;
	114	1	199.6200	65.8746	0	0	1	1.0000	0	12.66	1.10	0.90;
	115	1	131.6700	43.4511	0	0	1	1.0000	0	12.66	1.10	0.90;
	116	1	305.6400	100.8612	0	0	1	1.0000	0	12.66	1.10	0.90;
	117	1	399.4200	131.8086	0	0	1	1.0000	0	12.66	1.10	0.90;
	118	1	83.7900	27.6507	0	0	1	1.0000	0	12.66	1.10	0.90;
	119	1	37.6200	12.4146	0	0	1	1.0000	0	12.66	1.10	0.90;
	120	1	71.6400	23.6412	0	0	1	1.0000	0	12.66	1.10	0.90;
	121	1	294.8400	97.2972	0	0	1	1.0000	0	12.66	1.10	0.90;
	122	1	108.9900	35.9667	0	0	1	1.0000	0	12.66	1.10	0.90;
	123	1	57.4200	18.9486	0	0	1	1.0000	0	12.66	1.10	0.90;
	124	1	141.9300	46.8369	0	0	1	1.0000	0	12.66	1.10	0.90;
	125	1	90.2700	29.7891	0	0	1	1.0000	0	12.66	1.10	0.90;
	126	1	160.2900	52.8957	0	0	1	1.0000	0	12.66	1.10	0.90;
	127	1	23.5800	7.7814	0	0	1	1.0000	0	12.66	1.10	0.90;
	128	1	82.4400	27.2052	0	0	1	1.0000	0	12.66	1.10	0.90;
	129	1	239.7600	79.1208	0	0	1	1.0000	0	12.66	1.10	0.90;
	130	1	37.4400	12.3552	0	0	1	1.0000	0	12.66	1.10	0.90;
	131	1	262.2600	86.5458	0	0	1	1.0000	0	12.66	1.10	0.90;
	132	1	317.2500	104.6925	0	0	1	1.0000	0	12.66	1.10	0.90;
	133	1	334.4400	110.3652	0	0	1	1.0000	0	12.66	1.10	0.90;
	134	1	249.7500	82.4175	0	0	1	1.0000	0	12.66	1.10	0.90;
	135	1	285.3000	94.1490	0	0	1	1.0000	0	12.66	1.10	0.90;
	201	3	0.0000	0.0000	0	0	1	1.0000	0	12.66	1.10	0.90;
	202	3	0.0000	0.0000	0	0	1	1.0000	0	12.66	1.10	0.90;
];

%% Bus Load Importance Data
busLoadImportant = [
	1	0.7000	0.8300	1.0000;
	2	0.7000	0.8300	1.0000;
	3	0.7000	0.8300	1.0000;
	4	0.7000	0.8300	1.0000;
	5	0.7000	0.8300	1.0000;
	6	0.7000	0.8300	1.0000;
	7	0.7000	0.8300	1.0000;
	8	0.7000	0.8300	1.0000;
	9	0.7000	0.8300	1.0000;
	10	0.7000	0.8300	1.0000;
	11	0.7000	0.8300	1.0000;
	12	0.7000	0.8300	1.0000;
	13	0.7000	0.8300	1.0000;
	14	0.7000	0.8300	1.0000;
	15	0.7000	0.8300	1.0000;
	16	0.7000	0.8300	1.0000;
	17	0.7000	0.8300	1.0000;
	18	0.7000	0.8300	1.0000;
	19	0.7000	0.8300	1.0000;
	20	0.7000	0.8300	1.0000;
	21	0.7000	0.8300	1.0000;
	22	0.7000	0.8300	1.0000;
	23	0.7000	0.8300	1.0000;
	24	0.7000	0.8300	1.0000;
	25	0.7000	0.8300	1.0000;
	26	0.7000	0.8300	1.0000;
	27	0.7000	0.8300	1.0000;
	28	0.7000	0.8300	1.0000;
	29	0.7000	0.8300	1.0000;
	30	0.7000	0.8300	1.0000;
	31	0.7000	0.8300	1.0000;
	32	0.7000	0.8300	1.0000;
	33	0.7000	0.8300	1.0000;
	34	0.7000	0.8300	1.0000;
	35	0.7000	0.8300	1.0000;
	36	0.7000	0.8300	1.0000;
	37	0.7000	0.8300	1.0000;
	38	0.7000	0.8300	1.0000;
	39	0.7000	0.8300	1.0000;
	40	0.7000	0.8300	1.0000;
	41	0.7000	0.8300	1.0000;
	42	0.7000	0.8300	1.0000;
	43	0.7000	0.8300	1.0000;
	44	0.7000	0.8300	1.0000;
	45	0.7000	0.8300	1.0000;
	46	0.7000	0.8300	1.0000;
	47	0.7000	0.8300	1.0000;
	48	0.7000	0.8300	1.0000;
	49	0.7000	0.8300	1.0000;
	50	0.7000	0.8300	1.0000;
	51	0.7000	0.8300	1.0000;
	52	0.7000	0.8300	1.0000;
	53	0.7000	0.8300	1.0000;
	54	0.7000	0.8300	1.0000;
	55	0.7000	0.8300	1.0000;
	56	0.7000	0.8300	1.0000;
	57	0.7000	0.8300	1.0000;
	58	0.7000	0.8300	1.0000;
	59	0.7000	0.8300	1.0000;
	60	0.7000	0.8300	1.0000;
	61	0.7000	0.8300	1.0000;
	62	0.7000	0.8300	1.0000;
	63	0.7000	0.8300	1.0000;
	64	0.7000	0.8300	1.0000;
	65	0.7000	0.8300	1.0000;
	66	0.7000	0.8300	1.0000;
	67	0.7000	0.8300	1.0000;
	68	0.7000	0.8300	1.0000;
	69	0.7000	0.8300	1.0000;
	70	0.7000	0.8300	1.0000;
	71	0.7000	0.8300	1.0000;
	72	0.7000	0.8300	1.0000;
	73	0.7000	0.8300	1.0000;
	74	0.7000	0.8300	1.0000;
	75	0.7000	0.8300	1.0000;
	76	0.7000	0.8300	1.0000;
	77	0.7000	0.8300	1.0000;
	78	0.7000	0.8300	1.0000;
	79	0.7000	0.8300	1.0000;
	80	0.7000	0.8300	1.0000;
	81	0.7000	0.8300	1.0000;
	82	0.7000	0.8300	1.0000;
	83	0.7000	0.8300	1.0000;
	84	0.7000	0.8300	1.0000;
	85	0.7000	0.8300	1.0000;
	86	0.7000	0.8300	1.0000;
	87	0.7000	0.8300	1.0000;
	88	0.7000	0.8300	1.0000;
	89	0.7000	0.8300	1.0000;
	90	0.7000	0.8300	1.0000;
	91	0.7000	0.8300	1.0000;
	92	0.7000	0.8300	1.0000;
	93	0.7000	0.8300	1.0000;
	94	0.7000	0.8300	1.0000;
	95	0.7000	0.8300	1.0000;
	96	0.7000	0.8300	1.0000;
	97	0.7000	0.8300	1.0000;
	98	0.7000	0.8300	1.0000;
	99	0.7000	0.8300	1.0000;
	100	0.7000	0.8300	1.0000;
	101	0.7000	0.8300	1.0000;
	102	0.7000	0.8300	1.0000;
	103	0.7000	0.8300	1.0000;
	104	0.7000	0.8300	1.0000;
	105	0.7000	0.8300	1.0000;
	106	0.7000	0.8300	1.0000;
	107	0.7000	0.8300	1.0000;
	108	0.7000	0.8300	1.0000;
	109	0.7000	0.8300	1.0000;
	110	0.7000	0.8300	1.0000;
	111	0.7000	0.8300	1.0000;
	112	0.7000	0.8300	1.0000;
	113	0.7000	0.8300	1.0000;
	114	0.7000	0.8300	1.0000;
	115	0.7000	0.8300	1.0000;
	116	0.7000	0.8300	1.0000;
	117	0.7000	0.8300	1.0000;
	118	0.7000	0.8300	1.0000;
	119	0.7000	0.8300	1.0000;
	120	0.7000	0.8300	1.0000;
	121	0.7000	0.8300	1.0000;
	122	0.7000	0.8300	1.0000;
	123	0.7000	0.8300	1.0000;
	124	0.7000	0.8300	1.0000;
	125	0.7000	0.8300	1.0000;
	126	0.7000	0.8300	1.0000;
	127	0.7000	0.8300	1.0000;
	128	0.7000	0.8300	1.0000;
	129	0.7000	0.8300	1.0000;
	130	0.7000	0.8300	1.0000;
	131	0.7000	0.8300	1.0000;
	132	0.7000	0.8300	1.0000;
	133	0.7000	0.8300	1.0000;
	134	0.7000	0.8300	1.0000;
	135	0.7000	0.8300	1.0000;
];

%% generator data
gen = [
	201	100.0000	0.0000	100.0000	-100.0000	1	0.4500	15.0000	0	0	0	0	0	0	0	0	0	0	0	0	0;
    202	100.0000	0.0000	100.0000	-100.0000	1	0.4500	15.0000	0	0	0	0	0	0	0	0	0	0	0	0	0;
];

%% branch data (包含主线路及联络线)
branch = [
	1	201	0.050000	0.020000	0.0000	10.0	0.0000	0.0000	1	0.16707	2.4304	0.0000;
	1	2	0.050000	0.020000	0.0000	10.0	0.0000	0.0000	1	0.11779	2.3360	0.0000;
	2	3	0.050000	0.020000	0.0000	10.0	0.0000	0.0000	1	0.03074	1.5731	0.0000;
	3	4	0.050000	0.020000	0.0000	10.0	0.0000	0.0000	1	0.08995	1.9295	0.0000;
	4	5	0.050000	0.020000	0.0000	10.0	0.0000	0.0000	1	0.19398	1.7417	0.0000;
	5	6	0.050000	0.020000	0.0000	10.0	0.0000	0.0000	1	0.03342	1.5736	0.0000;
	6	7	0.050000	0.020000	0.0000	10.0	0.0000	0.0000	1	0.11351	1.6865	0.0000;
	6	8	0.050000	0.020000	0.0000	10.0	0.0000	0.0000	1	0.01604	2.3514	0.0000;
	8	9	0.050000	0.020000	0.0000	10.0	0.0000	0.0000	1	0.06639	1.8749	0.0000;
	8	10	0.050000	0.020000	0.0000	10.0	0.0000	0.0000	1	0.16707	2.3205	0.0000;
	10	11	0.050000	0.020000	0.0000	10.0	0.0000	0.0000	1	0.00094	2.2511	0.0000;
	10	12	0.050000	0.020000	0.0000	10.0	0.0000	0.0000	1	0.11232	2.2076	0.0000;
	10	13	0.050000	0.020000	0.0000	10.0	0.0000	0.0000	1	0.05475	1.9156	0.0000;
	13	14	0.050000	0.020000	0.0000	10.0	0.0000	0.0000	1	0.16062	2.1314	0.0000;
	13	15	0.050000	0.020000	0.0000	10.0	0.0000	0.0000	1	0.09156	1.7646	0.0000;
	15	16	0.050000	0.020000	0.0000	10.0	0.0000	0.0000	1	0.06853	2.1438	0.0000;
	17	201	0.050000	0.020000	0.0000	10.0	0.0000	0.0000	1	0.00094	2.2222	0.0000;
	17	18	0.050000	0.020000	0.0000	10.0	0.0000	0.0000	1	0.01227	2.2908	0.0000;
	18	19	0.050000	0.020000	0.0000	10.0	0.0000	0.0000	1	0.02265	1.5628	0.0000;
	19	20	0.050000	0.020000	0.0000	10.0	0.0000	0.0000	1	0.00944	1.7394	0.0000;
	20	21	0.050000	0.020000	0.0000	10.0	0.0000	0.0000	1	0.03261	2.2153	0.0000;
	20	22	0.050000	0.020000	0.0000	10.0	0.0000	0.0000	1	0.00668	1.8669	0.0000;
	22	23	0.050000	0.020000	0.0000	10.0	0.0000	0.0000	1	0.04283	1.8679	0.0000;
	22	24	0.050000	0.020000	0.0000	10.0	0.0000	0.0000	1	0.08995	1.9373	0.0000;
	24	25	0.050000	0.020000	0.0000	10.0	0.0000	0.0000	1	0.01604	1.6512	0.0000;
	25	26	0.050000	0.020000	0.0000	10.0	0.0000	0.0000	1	0.02142	1.6475	0.0000;
	26	27	0.050000	0.020000	0.0000	10.0	0.0000	0.0000	1	0.09423	2.2023	0.0000;
	27	28	0.050000	0.020000	0.0000	10.0	0.0000	0.0000	1	0.22570	2.1297	0.0000;
	28	29	0.050000	0.020000	0.0000	10.0	0.0000	0.0000	1	0.02138	2.2102	0.0000;
	28	31	0.050000	0.020000	0.0000	10.0	0.0000	0.0000	1	0.08352	1.9330	0.0000;
	29	30	0.050000	0.020000	0.0000	10.0	0.0000	0.0000	1	0.05997	1.9455	0.0000;
	31	32	0.050000	0.020000	0.0000	10.0	0.0000	0.0000	1	0.01603	2.1668	0.0000;
	31	35	0.050000	0.020000	0.0000	10.0	0.0000	0.0000	1	0.16707	1.9934	0.0000;
	32	33	0.050000	0.020000	0.0000	10.0	0.0000	0.0000	1	0.05947	2.1588	0.0000;
	33	34	0.050000	0.020000	0.0000	10.0	0.0000	0.0000	1	0.62646	2.3081	0.0000;
	35	36	0.050000	0.020000	0.0000	10.0	0.0000	0.0000	1	0.00094	1.5215	0.0000;
	35	38	0.050000	0.020000	0.0000	10.0	0.0000	0.0000	1	0.03493	2.1902	0.0000;
	36	37	0.050000	0.020000	0.0000	10.0	0.0000	0.0000	1	0.18418	1.8583	0.0000;
	39	201	0.050000	0.020000	0.0000	10.0	0.0000	0.0000	1	0.11234	1.8002	0.0000;
	39	40	0.050000	0.020000	0.0000	10.0	0.0000	0.0000	1	0.03209	2.1290	0.0000;
	40	41	0.050000	0.020000	0.0000	10.0	0.0000	0.0000	1	0.06607	2.2729	0.0000;
	40	42	0.050000	0.020000	0.0000	10.0	0.0000	0.0000	1	0.03115	1.7695	0.0000;
	42	43	0.050000	0.020000	0.0000	10.0	0.0000	0.0000	1	0.05758	1.5090	0.0000;
	43	44	0.050000	0.020000	0.0000	10.0	0.0000	0.0000	1	0.28019	2.2265	0.0000;
	43	45	0.050000	0.020000	0.0000	10.0	0.0000	0.0000	1	0.08018	2.3549	0.0000;
	45	46	0.050000	0.020000	0.0000	10.0	0.0000	0.0000	1	0.02265	2.2439	0.0000;
	46	47	0.050000	0.020000	0.0000	10.0	0.0000	0.0000	1	0.01321	1.5550	0.0000;
	47	48	0.050000	0.020000	0.0000	10.0	0.0000	0.0000	1	0.03020	1.9412	0.0000;
	47	62	0.050000	0.020000	0.0000	10.0	0.0000	0.0000	1	0.01510	1.5429	0.0000;
	48	49	0.050000	0.020000	0.0000	10.0	0.0000	0.0000	1	0.01038	1.6390	0.0000;
	48	51	0.050000	0.020000	0.0000	10.0	0.0000	0.0000	1	0.05475	2.3295	0.0000;
	49	50	0.050000	0.020000	0.0000	10.0	0.0000	0.0000	1	0.05782	1.5781	0.0000;
	51	52	0.050000	0.020000	0.0000	10.0	0.0000	0.0000	1	0.09423	2.0734	0.0000;
	52	53	0.050000	0.020000	0.0000	10.0	0.0000	0.0000	1	0.11351	2.1677	0.0000;
	52	56	0.050000	0.020000	0.0000	10.0	0.0000	0.0000	1	0.07496	1.8753	0.0000;
	53	54	0.050000	0.020000	0.0000	10.0	0.0000	0.0000	1	0.04712	1.7551	0.0000;
	54	55	0.050000	0.020000	0.0000	10.0	0.0000	0.0000	1	0.06985	2.2131	0.0000;
	56	57	0.050000	0.020000	0.0000	10.0	0.0000	0.0000	1	0.00377	1.9008	0.0000;
	57	58	0.050000	0.020000	0.0000	10.0	0.0000	0.0000	1	0.33592	2.1837	0.0000;
	58	59	0.050000	0.020000	0.0000	10.0	0.0000	0.0000	1	0.19256	1.8501	0.0000;
	59	60	0.050000	0.020000	0.0000	10.0	0.0000	0.0000	1	0.16613	2.2596	0.0000;
	60	61	0.050000	0.020000	0.0000	10.0	0.0000	0.0000	1	0.16518	1.9624	0.0000;
	63	202	0.050000	0.020000	0.0000	10.0	0.0000	0.0000	1	0.05003	2.4821	0.0000;
	63	64	0.050000	0.020000	0.0000	10.0	0.0000	0.0000	1	0.08590	1.5523	0.0000;
	64	65	0.050000	0.020000	0.0000	10.0	0.0000	0.0000	1	0.12636	2.2747	0.0000;
	65	66	0.050000	0.020000	0.0000	10.0	0.0000	0.0000	1	0.02926	2.2060	0.0000;
	66	67	0.050000	0.020000	0.0000	10.0	0.0000	0.0000	1	0.15848	2.3356	0.0000;
	67	68	0.050000	0.020000	0.0000	10.0	0.0000	0.0000	1	0.23130	1.7727	0.0000;
	68	69	0.050000	0.020000	0.0000	10.0	0.0000	0.0000	1	0.03398	1.6329	0.0000;
	68	70	0.050000	0.020000	0.0000	10.0	0.0000	0.0000	1	0.27984	1.5283	0.0000;
	70	71	0.050000	0.020000	0.0000	10.0	0.0000	0.0000	1	0.00566	2.2046	0.0000;
	70	73	0.050000	0.020000	0.0000	10.0	0.0000	0.0000	1	0.36718	2.4357	0.0000;
	71	72	0.050000	0.020000	0.0000	10.0	0.0000	0.0000	1	0.11327	2.1907	0.0000;
	73	74	0.050000	0.020000	0.0000	10.0	0.0000	0.0000	1	0.10478	1.5848	0.0000;
	75	202	0.050000	0.020000	0.0000	10.0	0.0000	0.0000	1	0.07835	2.3173	0.0000;
	75	76	0.050000	0.020000	0.0000	10.0	0.0000	0.0000	1	0.02360	2.1689	0.0000;
	76	77	0.050000	0.020000	0.0000	10.0	0.0000	0.0000	1	0.17509	2.3192	0.0000;
	77	78	0.050000	0.020000	0.0000	10.0	0.0000	0.0000	1	0.09623	2.0545	0.0000;
	78	79	0.050000	0.020000	0.0000	10.0	0.0000	0.0000	1	0.12850	1.7557	0.0000;
	79	80	0.050000	0.020000	0.0000	10.0	0.0000	0.0000	1	0.03074	1.6000	0.0000;
	80	81	0.050000	0.020000	0.0000	10.0	0.0000	0.0000	1	0.12850	2.3510	0.0000;
	81	82	0.050000	0.020000	0.0000	10.0	0.0000	0.0000	1	0.00566	2.1050	0.0000;
	81	83	0.050000	0.020000	0.0000	10.0	0.0000	0.0000	1	0.21050	1.8789	0.0000;
	83	84	0.050000	0.020000	0.0000	10.0	0.0000	0.0000	1	0.03443	2.4852	0.0000;
	85	202	0.050000	0.020000	0.0000	10.0	0.0000	0.0000	1	0.08212	2.3950	0.0000;
	85	86	0.050000	0.020000	0.0000	10.0	0.0000	0.0000	1	0.22088	2.4216	0.0000;
	86	87	0.050000	0.020000	0.0000	10.0	0.0000	0.0000	1	0.01590	1.5631	0.0000;
	86	88	0.050000	0.020000	0.0000	10.0	0.0000	0.0000	1	0.03870	2.1544	0.0000;
	88	89	0.050000	0.020000	0.0000	10.0	0.0000	0.0000	1	0.16707	1.8473	0.0000;
	89	90	0.050000	0.020000	0.0000	10.0	0.0000	0.0000	1	0.04248	1.8213	0.0000;
	90	91	0.050000	0.020000	0.0000	10.0	0.0000	0.0000	1	0.06702	2.3160	0.0000;
	91	92	0.050000	0.020000	0.0000	10.0	0.0000	0.0000	1	0.08287	1.5790	0.0000;
	92	93	0.050000	0.020000	0.0000	10.0	0.0000	0.0000	1	0.06148	2.3435	0.0000;
	93	94	0.050000	0.020000	0.0000	10.0	0.0000	0.0000	1	0.07485	1.9228	0.0000;
	93	97	0.050000	0.020000	0.0000	10.0	0.0000	0.0000	1	0.05192	2.2625	0.0000;
	94	95	0.050000	0.020000	0.0000	10.0	0.0000	0.0000	1	0.06796	2.4653	0.0000;
	95	96	0.050000	0.020000	0.0000	10.0	0.0000	0.0000	1	0.00472	2.4825	0.0000;
	97	98	0.050000	0.020000	0.0000	10.0	0.0000	0.0000	1	0.08495	1.5594	0.0000;
	99	202	0.050000	0.020000	0.0000	10.0	0.0000	0.0000	1	0.05758	2.0384	0.0000;
	99	100	0.050000	0.020000	0.0000	10.0	0.0000	0.0000	1	0.05947	2.0200	0.0000;
	100	101	0.050000	0.020000	0.0000	10.0	0.0000	0.0000	1	0.48336	1.8145	0.0000;
	101	102	0.050000	0.020000	0.0000	10.0	0.0000	0.0000	1	0.22938	2.2697	0.0000;
	101	103	0.050000	0.020000	0.0000	10.0	0.0000	0.0000	1	0.35020	1.5856	0.0000;
	103	104	0.050000	0.020000	0.0000	10.0	0.0000	0.0000	1	0.23032	2.0819	0.0000;
	104	105	0.050000	0.020000	0.0000	10.0	0.0000	0.0000	1	0.06656	2.1955	0.0000;
	104	118	0.050000	0.020000	0.0000	10.0	0.0000	0.0000	1	0.07000	1.6321	0.0000;
	105	106	0.050000	0.020000	0.0000	10.0	0.0000	0.0000	1	0.12422	1.6714	0.0000;
	106	107	0.050000	0.020000	0.0000	10.0	0.0000	0.0000	1	0.12207	2.0490	0.0000;
	107	108	0.050000	0.020000	0.0000	10.0	0.0000	0.0000	1	0.01492	1.7727	0.0000;
	107	110	0.050000	0.020000	0.0000	10.0	0.0000	0.0000	1	0.10708	1.5995	0.0000;
	108	109	0.050000	0.020000	0.0000	10.0	0.0000	0.0000	1	0.19489	2.0663	0.0000;
	108	114	0.050000	0.020000	0.0000	10.0	0.0000	0.0000	1	0.12850	2.2400	0.0000;
	109	116	0.050000	0.020000	0.0000	10.0	0.0000	0.0000	1	0.17561	1.5561	0.0000;
	110	111	0.050000	0.020000	0.0000	10.0	0.0000	0.0000	1	0.24414	2.4540	0.0000;
	111	112	0.050000	0.020000	0.0000	10.0	0.0000	0.0000	1	0.24260	2.3356	0.0000;
	112	113	0.050000	0.020000	0.0000	10.0	0.0000	0.0000	1	0.10708	1.5743	0.0000;
	114	115	0.050000	0.020000	0.0000	10.0	0.0000	0.0000	1	0.16235	1.8687	0.0000;
	116	117	0.050000	0.020000	0.0000	10.0	0.0000	0.0000	1	0.07362	1.5089	0.0000;
	118	119	0.050000	0.020000	0.0000	10.0	0.0000	0.0000	1	0.06230	1.8728	0.0000;
	119	120	0.050000	0.020000	0.0000	10.0	0.0000	0.0000	1	0.00566	2.3080	0.0000;
	121	202	0.050000	0.020000	0.0000	10.0	0.0000	0.0000	1	0.01604	1.9904	0.0000;
	121	122	0.050000	0.020000	0.0000	10.0	0.0000	0.0000	1	0.32660	2.2311	0.0000;
	122	123	0.050000	0.020000	0.0000	10.0	0.0000	0.0000	1	0.02265	1.9937	0.0000;
	123	124	0.050000	0.020000	0.0000	10.0	0.0000	0.0000	1	0.11130	1.9955	0.0000;
	123	125	0.050000	0.020000	0.0000	10.0	0.0000	0.0000	1	0.21038	1.6075	0.0000;
	125	126	0.050000	0.020000	0.0000	10.0	0.0000	0.0000	1	0.11993	2.3710	0.0000;
	125	127	0.050000	0.020000	0.0000	10.0	0.0000	0.0000	1	0.04908	1.9321	0.0000;
	127	128	0.050000	0.020000	0.0000	10.0	0.0000	0.0000	1	0.05947	2.3176	0.0000;
	127	129	0.050000	0.020000	0.0000	10.0	0.0000	0.0000	1	0.06985	2.3607	0.0000;
	129	130	0.050000	0.020000	0.0000	10.0	0.0000	0.0000	1	0.22171	1.9116	0.0000;
	130	131	0.050000	0.020000	0.0000	10.0	0.0000	0.0000	1	0.04625	1.8429	0.0000;
	131	132	0.050000	0.020000	0.0000	10.0	0.0000	0.0000	1	0.08118	2.4892	0.0000;
	132	133	0.050000	0.020000	0.0000	10.0	0.0000	0.0000	1	0.10692	1.5905	0.0000;
	133	134	0.050000	0.020000	0.0000	10.0	0.0000	0.0000	1	0.11227	1.5639	0.0000;
	134	135	0.050000	0.020000	0.0000	10.0	0.0000	0.0000	1	0.08287	2.3043	0.0000;
	11	74	0.050000	0.020000	0.0000	10.0	0.0000	0.0000	0	0.10000	5.0000	0.0000;
	15	84	0.050000	0.020000	0.0000	10.0	0.0000	0.0000	0	0.10000	5.0000	0.0000;
	30	135	0.050000	0.020000	0.0000	10.0	0.0000	0.0000	0	0.10000	5.0000	0.0000;
	55	98	0.050000	0.020000	0.0000	10.0	0.0000	0.0000	0	0.10000	5.0000	0.0000;
	50	96	0.050000	0.020000	0.0000	10.0	0.0000	0.0000	0	0.10000	5.0000	0.0000;
	105	104	0.050000	0.020000	0.0000	10.0	0.0000	0.0000	0	0.10000	5.0000	0.0000;
];

branch(:, 13:23) = 0;

%%-----  OPF Data  -----%%
gencost = [ 2 1500 0 3 0.11 5 150; ];
w_gen = 1.05 * ones(size(gen, 1), 1);

%% 数据转换与标幺化计算
rate = 1.00;
bus(:,3) = (rate .* bus(:,3)) / 1000; % kW -> MW
bus(:,4) = (rate .* bus(:,4)) / 1000; % kVAr -> MVAR

Vbase = bus(1, 10); 
Zbase = (Vbase^2) / baseMVA;
branch(:, 3) = branch(:, 3) / Zbase; % R p.u.
branch(:, 4) = branch(:, 4) / Zbase; % X p.u.

gen(:,2:5) = rate.*gen(:,2:5);
gen(:,9:10) = rate.*gen(:,9:10);

bus(:,13:32) = 0;
busPmax = zeros(size(bus,1),1); busPmin = zeros(size(bus,1),1); busPG = zeros(size(bus,1),1);
busQmax = zeros(size(bus,1),1); busQmin = zeros(size(bus,1),1); busQG = zeros(size(bus,1),1);

gen(:,11) = 1-8760./(gen(:,7).*gen(:,8)+8760);

for i=1:size(bus,1)
    genindex = find(gen(:,1) == i);
    if(~isempty(genindex))
        busPmax(i) = sum(gen(genindex,2)); busPmin(i) = sum(gen(genindex,3)); busPG(i)   = sum(gen(genindex,9));
        busQmax(i) = sum(gen(genindex,4)); busQmin(i) = sum(gen(genindex,5)); busQG(i)   = sum(gen(genindex,10));
    end
end

bus(:,13) = busPmax; bus(:,14) = busPmin; bus(:,15) = busQmax;
bus(:,16) = busQmin; bus(:,17) = busPG; bus(:,18) = busQG;

branch(:,13) = 1-8760./(branch(:,10).*branch(:,11)+8760);
branch(:,14:23) = 0.0;

PBase = prod(1-gen(:,11)) * prod(1-branch(:,13));
PFBase = sum(gen(:,7)) + sum(branch(:,10));

end
